data_iceii
_audit_creation_method 'testing purposes'
_cell_length_a 7.78
_cell_length_b 7.78
_cell_length_c 7.78
_cell_angle_alpha 113.1
_cell_angle_beta 113.1
_cell_angle_gamma 113.1
loop_
_symmetry_equiv_pos_site_id
_symmetry_equiv_pos_as_xyz
1 +x,+y,+z
loop_
_atom_site_label
_atom_site_type_symbol
_atom_site_fract_x
_atom_site_fract_y
_atom_site_fract_z
_atom_site_occupancy
O1  O       0.273328954083       0.026479033257       0.855073668062       1.000000000000
H1  H       0.152000330304       0.043488909374       0.793595454907       1.000000000000
H2  H       0.420775085827       0.191165194485       0.996362203192       1.000000000000
O2  O       0.144924657237       0.726669877048       0.973520141937       1.000000000000
H3  H       0.206402797363       0.847998481439       0.956510183901       1.000000000000
H4  H       0.003636687868       0.579223433079       0.808833958746       1.000000000000
O3  O       0.026477491142       0.855072949204       0.273328854276       1.000000000000
H5  H       0.043487719387       0.793594459529       0.152000553858       1.000000000000
H6  H       0.191163388489       0.996362120061       0.420774953988       1.000000000000
O4  O       0.726670757782       0.973520932681       0.144926297633       1.000000000000
H7  H       0.847999275418       0.956510882297       0.206404294889       1.000000000000
H8  H       0.579224602173       0.808834869258       0.003637530197       1.000000000000
O5  O       0.855073412561       0.273329597478       0.026478702027       1.000000000000
H9  H       0.793594909621       0.152000771295       0.043488316376       1.000000000000
H10 H       0.996362312075       0.420775512814       0.191164826329       1.000000000000
O6  O       0.973520717390       0.144925628579       0.726671054509       1.000000000000
H11 H       0.956510600982       0.206403626100       0.847999547813       1.000000000000
H12 H       0.808834607385       0.003637609551       0.579224562315       1.000000000000
O7  O       0.477029330652       0.749805220756       0.331717174202       1.000000000000
H13 H       0.402360172390       0.720795433576       0.401054786853       1.000000000000
H14 H       0.368036378343       0.742284933413       0.207434128329       1.000000000000
O8  O       0.668282055550       0.522969467265       0.250193622013       1.000000000000
H15 H       0.598945169999       0.597639203188       0.279204514235       1.000000000000
H16 H       0.792565160978       0.631962548905       0.257714022497       1.000000000000
O9  O       0.749805496250       0.331717033025       0.477029827575       1.000000000000
H17 H       0.720795009402       0.401054437437       0.402360618546       1.000000000000
H18 H       0.742284706875       0.207433751728       0.368036342085       1.000000000000
O10 O       0.522969071341       0.250193392512       0.668282780114       1.000000000000
H19 H       0.597638176364       0.279203622225       0.598945231951       1.000000000000
H20 H       0.631962932785       0.257715003205       0.792566578018       1.000000000000
O11 O       0.331715381178       0.477028907327       0.749804544234       1.000000000000
H21 H       0.401053887354       0.402360576463       0.720795552111       1.000000000000
H22 H       0.207432480540       0.368035542438       0.742284142147       1.000000000000
O12 O       0.250193225247       0.668282913065       0.522970147212       1.000000000000
H23 H       0.279203658434       0.598945325854       0.597639149965       1.000000000000
H24 H       0.257715011998       0.792566781760       0.631964289620       1.000000000000
#END
